%chk=INPUT/COUMARYL-cosmo.chk
%mem=20GB
%NProcShared=24
# opt=calcfc SCF(novaracc,noincfock) int=acc2e=12 b3lyp/6-31g(d,p) scf=tight SCRF=(CPCM,read) 

opt of COUMARYL

0  1
O           1.39368        -0.53476        -0.07029
C           2.76435        -0.28017         0.04997
C           3.22220         0.50270        -1.14747
C           3.77918         1.72191        -1.02532
C           4.25750         2.55825        -2.16247
C           4.81842         3.81473        -1.87142
C           5.28463         4.64435        -2.89510
C           5.19809         4.23157        -4.23062
C           4.64293         2.98558        -4.53298
C           4.17516         2.15220        -3.51175
O           5.64364         5.02109        -5.22870
H           1.15051        -1.10594         0.70408
H           3.32731        -1.23934         0.06819
H           2.95727         0.27828         0.99360
H           3.08234         0.03668        -2.11404
H           3.89200         2.13463        -0.02574
H           4.89694         4.15753        -0.84671
H           5.71279         5.60768        -2.64784
H           4.57303         2.66038        -5.56357
H           3.75532         1.20027        -3.79765
H           6.03454         5.89064        -5.06169



Radii=klamt Alpha=1.0 Surface=VDW

--Link1--
%chk=INPUT/COUMARYL-cosmo.chk
%mem=20GB
%NProcShared=24
# b3lyp/6-31g(d,p) geom=checkpoint guess=read  scf=tight 

vacuum energy of COUMARYL

0  1

--Link1--
%chk=INPUT/COUMARYL-cosmo.chk
%mem=20GB
%NProcShared=24
# b3lyp/6-31g(d,p) geom=checkpoint guess=read  scf=tight  SCRF=COSMORS

cosmo of COUMARYL

0  1

INPUT/COUMARYL.cosmo
